
  Marvin  01010823053D          

174173  0  0  1  0            999 V2000
   18.9477   -6.3603   13.3753 C   0  0  0  0  0  0  0  0  0  0  0  0
   19.6307   -6.9401   14.2043 O   0  0  0  0  0  0  0  0  0  0  0  0
   17.7113   -6.9688   12.9367 C   0  0  1  0  0  0  0  0  0  0  0  0
   16.6139   -6.1317   13.1751 N   0  0  0  0  0  0  0  0  0  0  0  0
   19.0957  -10.0412    7.5861 N   0  0  0  0  0  0  0  0  0  0  0  0
   19.2635   -9.8972    9.0314 C   0  0  0  0  0  0  0  0  0  0  0  0
   17.7236   -7.3482   11.4376 C   0  0  0  0  0  0  0  0  0  0  0  0
   18.3853   -8.7489    9.5302 C   0  0  0  0  0  0  0  0  0  0  0  0
   18.5588   -8.5692   11.0399 C   0  0  0  0  0  0  0  0  0  0  0  0
   19.3578   -5.2864   12.9489 O   0  0  0  0  0  0  0  0  0  0  0  0
   15.3358   -6.3905   13.1839 C   0  0  0  0  0  0  0  0  0  0  0  0
   14.3949   -5.2752   13.1505 C   0  0  2  0  0  0  0  0  0  0  0  0
   14.9580   -7.5586   13.2193 O   0  0  0  0  0  0  0  0  0  0  0  0
   12.8814   -5.6237   13.2802 C   0  0  0  0  0  0  0  0  0  0  0  0
   14.5280   -4.5375   11.9606 N   0  0  0  0  0  0  0  0  0  0  0  0
   12.3401   -6.3040   14.5465 C   0  0  2  0  0  0  0  0  0  0  0  0
   10.9470   -6.8355   14.2023 C   0  0  0  0  0  0  0  0  0  0  0  0
   12.2092   -5.3470   15.7372 C   0  0  0  0  0  0  0  0  0  0  0  0
   14.0851   -3.3545   11.6224 C   0  0  0  0  0  0  0  0  0  0  0  0
   14.1500   -2.9321   10.2245 C   0  0  2  0  0  0  0  0  0  0  0  0
   13.6212   -2.6256   12.4954 O   0  0  0  0  0  0  0  0  0  0  0  0
   13.5978   -1.5117    9.8916 C   0  0  0  0  0  0  0  0  0  0  0  0
   13.4598   -3.8193    9.3783 N   0  0  0  0  0  0  0  0  0  0  0  0
   14.2169   -0.2543   10.5206 C   0  0  2  0  0  0  0  0  0  0  0  0
   13.2217    0.8877   10.3036 C   0  0  0  0  0  0  0  0  0  0  0  0
   15.5538    0.1417    9.8838 C   0  0  0  0  0  0  0  0  0  0  0  0
   13.4754   -3.9607    8.0772 C   0  0  0  0  0  0  0  0  0  0  0  0
   12.4707   -4.8009    7.4281 C   0  0  2  0  0  0  0  0  0  0  0  0
   14.3398   -3.3761    7.4293 O   0  0  0  0  0  0  0  0  0  0  0  0
   12.5430   -4.9158    5.8738 C   0  0  0  0  0  0  0  0  0  0  0  0
   11.1640   -4.3690    7.7190 N   0  0  0  0  0  0  0  0  0  0  0  0
   13.7824   -5.4980    5.1776 C   0  0  2  0  0  0  0  0  0  0  0  0
   13.6828   -5.1150    3.6993 C   0  0  0  0  0  0  0  0  0  0  0  0
   13.8680   -7.0254    5.2763 C   0  0  0  0  0  0  0  0  0  0  0  0
   10.0057   -4.9576    7.5642 C   0  0  0  0  0  0  0  0  0  0  0  0
    8.7758   -4.1850    7.7242 C   0  0  2  0  0  0  0  0  0  0  0  0
    9.9817   -6.1532    7.2840 O   0  0  0  0  0  0  0  0  0  0  0  0
    7.4301   -4.9481    7.5210 C   0  0  0  0  0  0  0  0  0  0  0  0
    8.7303   -3.0875    6.8446 N   0  0  0  0  0  0  0  0  0  0  0  0
    7.0516   -6.1409    8.4121 C   0  0  2  0  0  0  0  0  0  0  0  0
    5.9051   -6.8736    7.7117 C   0  0  0  0  0  0  0  0  0  0  0  0
    6.5774   -5.7239    9.8090 C   0  0  0  0  0  0  0  0  0  0  0  0
    7.9643   -2.0263    6.8323 C   0  0  0  0  0  0  0  0  0  0  0  0
    7.2742   -1.7916    7.8214 O   0  0  0  0  0  0  0  0  0  0  0  0
    7.9389   -1.1538    5.6569 C   0  0  1  0  0  0  0  0  0  0  0  0
    7.6163   -1.8638    4.4861 N   0  0  0  0  0  0  0  0  0  0  0  0
    4.8627    3.7923    8.0698 N   0  0  0  0  0  0  0  0  0  0  0  0
    6.0928    3.0114    7.9517 C   0  0  0  0  0  0  0  0  0  0  0  0
    6.9465    0.0442    5.7026 C   0  0  0  0  0  0  0  0  0  0  0  0
    5.9467    1.9966    6.8171 C   0  0  0  0  0  0  0  0  0  0  0  0
    7.2225    1.1581    6.7166 C   0  0  0  0  0  0  0  0  0  0  0  0
    7.7377   -1.5433    3.2232 C   0  0  0  0  0  0  0  0  0  0  0  0
    7.0742   -2.3556    2.2053 C   0  0  2  0  0  0  0  0  0  0  0  0
    8.4075   -0.5579    2.9245 O   0  0  0  0  0  0  0  0  0  0  0  0
    7.2544   -1.9126    0.7204 C   0  0  0  0  0  0  0  0  0  0  0  0
    5.6852   -2.4249    2.4183 N   0  0  0  0  0  0  0  0  0  0  0  0
    8.6465   -1.8575    0.0732 C   0  0  2  0  0  0  0  0  0  0  0  0
    8.5080   -1.0368   -1.2110 C   0  0  0  0  0  0  0  0  0  0  0  0
    9.1961   -3.2407   -0.2935 C   0  0  0  0  0  0  0  0  0  0  0  0
    4.7745   -3.2235    1.9226 C   0  0  0  0  0  0  0  0  0  0  0  0
    3.3580   -2.9243    2.1267 C   0  0  2  0  0  0  0  0  0  0  0  0
    5.1379   -4.2125    1.2913 O   0  0  0  0  0  0  0  0  0  0  0  0
    2.3305   -3.9140    1.4951 C   0  0  0  0  0  0  0  0  0  0  0  0
    3.0158   -1.6528    1.6319 N   0  0  0  0  0  0  0  0  0  0  0  0
    2.2957   -5.3930    1.9090 C   0  0  2  0  0  0  0  0  0  0  0  0
    1.4724   -6.1319    0.8517 C   0  0  0  0  0  0  0  0  0  0  0  0
    1.6423   -5.6203    3.2768 C   0  0  0  0  0  0  0  0  0  0  0  0
    1.9576   -0.9066    1.8235 C   0  0  0  0  0  0  0  0  0  0  0  0
    1.7384    0.2657    0.9787 C   0  0  2  0  0  0  0  0  0  0  0  0
    1.1670   -1.2164    2.7108 O   0  0  0  0  0  0  0  0  0  0  0  0
    0.4495    1.1033    1.2476 C   0  0  0  0  0  0  0  0  0  0  0  0
    1.6967   -0.0867   -0.3819 N   0  0  0  0  0  0  0  0  0  0  0  0
    0.2088    1.7752    2.6083 C   0  0  2  0  0  0  0  0  0  0  0  0
   -1.2651    2.1851    2.6473 C   0  0  0  0  0  0  0  0  0  0  0  0
    1.0641    3.0288    2.8256 C   0  0  0  0  0  0  0  0  0  0  0  0
    1.7636    0.6381   -1.4688 C   0  0  0  0  0  0  0  0  0  0  0  0
    1.4531    0.0298   -2.7618 C   0  0  2  0  0  0  0  0  0  0  0  0
    2.0768    1.8217   -1.3693 O   0  0  0  0  0  0  0  0  0  0  0  0
    1.5255    0.9614   -4.0119 C   0  0  0  0  0  0  0  0  0  0  0  0
    0.1526   -0.4964   -2.7422 N   0  0  0  0  0  0  0  0  0  0  0  0
    2.8298    1.6876   -4.3775 C   0  0  2  0  0  0  0  0  0  0  0  0
    2.4694    2.8232   -5.3382 C   0  0  0  0  0  0  0  0  0  0  0  0
    3.8492    0.7725   -5.0644 C   0  0  0  0  0  0  0  0  0  0  0  0
   -0.5168   -1.2669   -3.5593 C   0  0  0  0  0  0  0  0  0  0  0  0
    0.0953   -1.8945   -4.4192 O   0  0  0  0  0  0  0  0  0  0  0  0
   -1.9729   -1.3177   -3.4262 C   0  0  1  0  0  0  0  0  0  0  0  0
   -2.4972   -0.0233   -3.3332 N   0  0  0  0  0  0  0  0  0  0  0  0
   -6.6640   -3.5653   -7.0912 N   0  0  0  0  0  0  0  0  0  0  0  0
   -6.2454   -2.8571   -5.8824 C   0  0  0  0  0  0  0  0  0  0  0  0
   -2.7172   -2.0793   -4.5557 C   0  0  0  0  0  0  0  0  0  0  0  0
   -4.7185   -2.8524   -5.8068 C   0  0  0  0  0  0  0  0  0  0  0  0
   -4.2515   -2.1527   -4.5290 C   0  0  0  0  0  0  0  0  0  0  0  0
   -3.0664    0.5471   -2.3179 C   0  0  0  0  0  0  0  0  0  0  0  0
   -3.5710    1.8915   -2.5069 C   0  0  2  0  0  0  0  0  0  0  0  0
   -3.1956   -0.0074   -1.2299 O   0  0  0  0  0  0  0  0  0  0  0  0
   -2.6420    2.9174   -1.8125 C   0  0  0  0  0  0  0  0  0  0  0  0
   -4.8903    2.0243   -2.0672 N   0  0  0  0  0  0  0  0  0  0  0  0
   -3.0385    4.4079   -1.7765 C   0  0  1  0  0  0  0  0  0  0  0  0
   -2.0263    5.1368   -0.8905 C   0  0  0  0  0  0  0  0  0  0  0  0
   -3.0539    5.1053   -3.1441 C   0  0  0  0  0  0  0  0  0  0  0  0
   -6.0003    1.5562   -2.5357 C   0  0  0  0  0  0  0  0  0  0  0  0
   -7.1787    1.7824   -1.7275 C   0  0  2  0  0  0  0  0  0  0  0  0
   -6.0745    0.9701   -3.6112 O   0  0  0  0  0  0  0  0  0  0  0  0
   -7.6832    0.4546   -1.1130 C   0  0  0  0  0  0  0  0  0  0  0  0
   -8.1559    2.4793   -2.4428 N   0  0  0  0  0  0  0  0  0  0  0  0
   -8.9811    0.4274   -0.2810 C   0  0  1  0  0  0  0  0  0  0  0  0
   -9.2805   -1.0353    0.0553 C   0  0  0  0  0  0  0  0  0  0  0  0
   -8.9288    1.2071    1.0394 C   0  0  0  0  0  0  0  0  0  0  0  0
   -8.1900    3.7343   -2.7621 C   0  0  0  0  0  0  0  0  0  0  0  0
   -9.2568    4.1832   -3.6327 C   0  0  2  0  0  0  0  0  0  0  0  0
   -7.3679    4.5411   -2.3345 O   0  0  0  0  0  0  0  0  0  0  0  0
   -8.6486    4.6923   -4.9659 C   0  0  0  0  0  0  0  0  0  0  0  0
  -10.0283    5.1617   -3.0012 N   0  0  0  0  0  0  0  0  0  0  0  0
   -9.5096    5.2869   -6.0962 C   0  0  2  0  0  0  0  0  0  0  0  0
   -8.6346    5.3939   -7.3453 C   0  0  0  0  0  0  0  0  0  0  0  0
   -9.9850    6.7200   -5.8269 C   0  0  0  0  0  0  0  0  0  0  0  0
  -10.8382    5.1181   -1.9922 C   0  0  0  0  0  0  0  0  0  0  0  0
  -11.4519    6.3763   -1.6341 C   0  0  2  0  0  0  0  0  0  0  0  0
  -11.1068    4.0790   -1.3978 O   0  0  0  0  0  0  0  0  0  0  0  0
  -10.9614    6.8675   -0.2498 C   0  0  0  0  0  0  0  0  0  0  0  0
  -12.8433    6.3050   -1.7157 N   0  0  0  0  0  0  0  0  0  0  0  0
  -11.4518    8.2127    0.3220 C   0  0  1  0  0  0  0  0  0  0  0  0
  -10.8211    8.3868    1.7062 C   0  0  0  0  0  0  0  0  0  0  0  0
  -11.0634    9.4454   -0.5065 C   0  0  0  0  0  0  0  0  0  0  0  0
  -13.6828    6.6004   -2.6601 C   0  0  0  0  0  0  0  0  0  0  0  0
  -14.8492    6.3959   -2.3508 O   0  0  0  0  0  0  0  0  0  0  0  0
  -13.3435    7.0597   -4.0037 C   0  0  1  0  0  0  0  0  0  0  0  0
  -13.6483    6.1146   -4.9937 N   0  0  0  0  0  0  0  0  0  0  0  0
  -13.9440   12.3299   -7.4613 N   0  0  0  0  0  0  0  0  0  0  0  0
  -13.4011   11.0083   -7.1508 C   0  0  0  0  0  0  0  0  0  0  0  0
  -13.9681    8.4360   -4.3232 C   0  0  0  0  0  0  0  0  0  0  0  0
  -14.0052   10.4684   -5.8515 C   0  0  0  0  0  0  0  0  0  0  0  0
  -13.3842    9.0959   -5.5811 C   0  0  0  0  0  0  0  0  0  0  0  0
  -13.1967    4.9131   -5.1833 C   0  0  0  0  0  0  0  0  0  0  0  0
  -13.6022    4.1851   -6.3622 C   0  0  2  0  0  0  0  0  0  0  0  0
  -12.4303    4.3695   -4.3967 O   0  0  0  0  0  0  0  0  0  0  0  0
  -14.4730    2.9667   -5.9582 C   0  0  0  0  0  0  0  0  0  0  0  0
  -12.4979    3.7497   -7.0908 N   0  0  0  0  0  0  0  0  0  0  0  0
  -14.8005    1.8666   -6.9858 C   0  0  1  0  0  0  0  0  0  0  0  0
  -15.3555    0.6628   -6.2223 C   0  0  0  0  0  0  0  0  0  0  0  0
  -15.8314    2.3027   -8.0333 C   0  0  0  0  0  0  0  0  0  0  0  0
  -12.0992    4.0235   -8.2919 C   0  0  0  0  0  0  0  0  0  0  0  0
  -11.2246    3.0993   -8.9960 C   0  0  2  0  0  0  0  0  0  0  0  0
  -12.4461    5.0541   -8.8580 O   0  0  0  0  0  0  0  0  0  0  0  0
  -11.9794    2.4595  -10.1898 C   0  0  0  0  0  0  0  0  0  0  0  0
  -10.6749    2.0778   -8.2099 N   0  0  0  0  0  0  0  0  0  0  0  0
  -11.2719    1.4239  -11.0878 C   0  0  1  0  0  0  0  0  0  0  0  0
  -12.3209    0.8403  -12.0357 C   0  0  0  0  0  0  0  0  0  0  0  0
  -10.1267    1.9911  -11.9380 C   0  0  0  0  0  0  0  0  0  0  0  0
   -9.4299    1.7828   -7.9841 C   0  0  0  0  0  0  0  0  0  0  0  0
   -9.0893    0.5975   -7.2052 C   0  0  2  0  0  0  0  0  0  0  0  0
   -8.5365    2.4675   -8.4724 O   0  0  0  0  0  0  0  0  0  0  0  0
   -9.5892    0.7191   -5.7451 C   0  0  0  0  0  0  0  0  0  0  0  0
   -7.7254    0.2807   -7.2740 N   0  0  0  0  0  0  0  0  0  0  0  0
   -9.4210   -0.4175   -4.7159 C   0  0  2  0  0  0  0  0  0  0  0  0
   -9.8444   -1.8289   -5.1485 C   0  0  0  0  0  0  0  0  0  0  0  0
  -10.3399   -0.0481   -3.5522 C   0  0  0  0  0  0  0  0  0  0  0  0
   -7.1320   -0.3282   -8.2539 C   0  0  0  0  0  0  0  0  0  0  0  0
   -5.8326    0.1646   -8.6702 C   0  0  2  0  0  0  0  0  0  0  0  0
   -7.6816   -1.2410   -8.8667 O   0  0  0  0  0  0  0  0  0  0  0  0
   -6.0656    0.9391   -9.9964 C   0  0  0  0  0  0  0  0  0  0  0  0
   -4.9017   -0.8698   -8.7856 N   0  0  0  0  0  0  0  0  0  0  0  0
   -4.8864    1.4238  -10.8512 C   0  0  2  0  0  0  0  0  0  0  0  0
   -5.2595    2.7311  -11.5499 C   0  0  0  0  0  0  0  0  0  0  0  0
   -4.5344    0.3865  -11.9245 C   0  0  0  0  0  0  0  0  0  0  0  0
   -3.6271   -0.9689   -8.5578 C   0  0  0  0  0  0  0  0  0  0  0  0
   -3.1787   -2.0537   -8.9039 O   0  0  0  0  0  0  0  0  0  0  0  0
   -2.7390    0.0414   -8.0006 C   0  0  1  0  0  0  0  0  0  0  0  0
   -1.6496   -0.5348   -7.2021 N   0  0  0  0  0  0  0  0  0  0  0  0
   -0.5308    5.2529  -10.7825 N   0  0  0  0  0  0  0  0  0  0  0  0
   -0.9587    4.5403   -9.5788 C   0  0  0  0  0  0  0  0  0  0  0  0
   -2.0931    0.8918   -9.1059 C   0  0  0  0  0  0  0  0  0  0  0  0
   -1.3299    3.0993   -9.9367 C   0  0  0  0  0  0  0  0  0  0  0  0
   -1.7627    2.3288   -8.6857 C   0  0  0  0  0  0  0  0  0  0  0  0
  1  2  2  0  0  0  0
  1  3  1  0  0  0  0
  1 10  1  0  0  0  0
  3  4  1  0  0  0  0
  3  7  1  0  0  0  0
  4 11  1  0  0  0  0
  5  6  1  0  0  0  0
  6  8  1  0  0  0  0
  7  9  1  0  0  0  0
  8  9  1  0  0  0  0
 11 12  1  0  0  0  0
 11 13  2  0  0  0  0
 12 14  1  0  0  0  0
 12 15  1  0  0  0  0
 14 16  1  0  0  0  0
 15 19  1  0  0  0  0
 16 17  1  0  0  0  0
 16 18  1  0  0  0  0
 19 20  1  0  0  0  0
 19 21  2  0  0  0  0
 20 22  1  0  0  0  0
 20 23  1  0  0  0  0
 22 24  1  0  0  0  0
 23 27  1  0  0  0  0
 24 25  1  0  0  0  0
 24 26  1  0  0  0  0
 27 28  1  0  0  0  0
 27 29  2  0  0  0  0
 28 30  1  0  0  0  0
 28 31  1  0  0  0  0
 30 32  1  0  0  0  0
 31 35  1  0  0  0  0
 32 33  1  0  0  0  0
 32 34  1  0  0  0  0
 35 36  1  0  0  0  0
 35 37  2  0  0  0  0
 36 38  1  0  0  0  0
 36 39  1  0  0  0  0
 38 40  1  0  0  0  0
 39 43  1  0  0  0  0
 40 41  1  0  0  0  0
 40 42  1  0  0  0  0
 43 44  2  0  0  0  0
 43 45  1  0  0  0  0
 45 46  1  0  0  0  0
 45 49  1  0  0  0  0
 46 52  1  0  0  0  0
 47 48  1  0  0  0  0
 48 50  1  0  0  0  0
 49 51  1  0  0  0  0
 50 51  1  0  0  0  0
 52 53  1  0  0  0  0
 52 54  2  0  0  0  0
 53 55  1  0  0  0  0
 53 56  1  0  0  0  0
 55 57  1  0  0  0  0
 56 60  1  0  0  0  0
 57 58  1  0  0  0  0
 57 59  1  0  0  0  0
 60 61  1  0  0  0  0
 60 62  2  0  0  0  0
 61 63  1  0  0  0  0
 61 64  1  0  0  0  0
 63 65  1  0  0  0  0
 64 68  1  0  0  0  0
 65 66  1  0  0  0  0
 65 67  1  0  0  0  0
 68 69  1  0  0  0  0
 68 70  2  0  0  0  0
 69 71  1  0  0  0  0
 69 72  1  0  0  0  0
 71 73  1  0  0  0  0
 72 76  1  0  0  0  0
 73 74  1  0  0  0  0
 73 75  1  0  0  0  0
 76 77  1  0  0  0  0
 76 78  2  0  0  0  0
 77 79  1  0  0  0  0
 77 80  1  0  0  0  0
 79 81  1  0  0  0  0
 80 84  1  0  0  0  0
 81 82  1  0  0  0  0
 81 83  1  0  0  0  0
 84 85  2  0  0  0  0
 84 86  1  0  0  0  0
 86 87  1  0  0  0  0
 86 90  1  0  0  0  0
 87 93  1  0  0  0  0
 88 89  1  0  0  0  0
 89 91  1  0  0  0  0
 90 92  1  0  0  0  0
 91 92  1  0  0  0  0
 93 94  1  0  0  0  0
 93 95  2  0  0  0  0
 94 96  1  0  0  0  0
 94 97  1  0  0  0  0
 96 98  1  0  0  0  0
 97101  1  0  0  0  0
 98 99  1  0  0  0  0
 98100  1  0  0  0  0
101102  1  0  0  0  0
101103  2  0  0  0  0
102104  1  0  0  0  0
102105  1  0  0  0  0
104106  1  0  0  0  0
105109  1  0  0  0  0
106107  1  0  0  0  0
106108  1  0  0  0  0
109110  1  0  0  0  0
109111  2  0  0  0  0
110112  1  0  0  0  0
110113  1  0  0  0  0
112114  1  0  0  0  0
113117  1  0  0  0  0
114115  1  0  0  0  0
114116  1  0  0  0  0
117118  1  0  0  0  0
117119  2  0  0  0  0
118120  1  0  0  0  0
118121  1  0  0  0  0
120122  1  0  0  0  0
121125  1  0  0  0  0
122123  1  0  0  0  0
122124  1  0  0  0  0
125126  2  0  0  0  0
125127  1  0  0  0  0
127128  1  0  0  0  0
127131  1  0  0  0  0
128134  1  0  0  0  0
129130  1  0  0  0  0
130132  1  0  0  0  0
131133  1  0  0  0  0
132133  1  0  0  0  0
134135  1  0  0  0  0
134136  2  0  0  0  0
135137  1  0  0  0  0
135138  1  0  0  0  0
137139  1  0  0  0  0
138142  1  0  0  0  0
139140  1  0  0  0  0
139141  1  0  0  0  0
142143  1  0  0  0  0
142144  2  0  0  0  0
143145  1  0  0  0  0
143146  1  0  0  0  0
145147  1  0  0  0  0
146150  1  0  0  0  0
147148  1  0  0  0  0
147149  1  0  0  0  0
150151  1  0  0  0  0
150152  2  0  0  0  0
151153  1  0  0  0  0
151154  1  0  0  0  0
153155  1  0  0  0  0
154158  1  0  0  0  0
155156  1  0  0  0  0
155157  1  0  0  0  0
158159  1  0  0  0  0
158160  2  0  0  0  0
159161  1  0  0  0  0
159162  1  0  0  0  0
161163  1  0  0  0  0
162166  1  0  0  0  0
163164  1  0  0  0  0
163165  1  0  0  0  0
166167  2  0  0  0  0
166168  1  0  0  0  0
168169  1  0  0  0  0
168172  1  0  0  0  0
170171  1  0  0  0  0
171173  1  0  0  0  0
172174  1  0  0  0  0
173174  1  0  0  0  0
M  END
$$$$
